Version 4
SHEET 1 880 680
WIRE 272 16 -96 16
WIRE -96 128 -96 16
WIRE 272 128 272 16
WIRE 272 128 176 128
WIRE 112 160 0 160
WIRE 272 192 176 192
WIRE 0 256 0 160
WIRE 272 272 272 192
WIRE 272 272 128 272
WIRE 272 288 272 272
WIRE 272 288 160 288
WIRE -96 384 -96 208
WIRE 160 384 160 368
WIRE 160 384 -96 384
WIRE 160 400 160 384
WIRE 0 464 0 336
WIRE 0 608 0 544
WIRE 128 608 128 272
WIRE 128 608 0 608
FLAG 160 400 0
SYMBOL AutoGenerated\\irfb_s_sl3806pbf 144 160 R0
SYMATTR InstName U1
SYMBOL voltage -96 112 R0
WINDOW 123 0 0 Left 0
WINDOW 39 0 0 Left 0
SYMATTR InstName V1
SYMATTR Value 24
SYMBOL res 144 272 R0
SYMATTR InstName R1
SYMATTR Value 10k
SYMBOL voltage 0 448 R0
WINDOW 123 0 0 Left 0
WINDOW 39 0 0 Left 0
SYMATTR InstName V2
SYMATTR Value PULSE(0 12 0 20n 20n 5e-5 1e-4)
SYMBOL res -16 240 R0
SYMATTR InstName R2
SYMATTR Value 10
TEXT -130 614 Left 2 !.tran 1m
