Version 4
SHEET 1 1800 840
WIRE 544 -64 416 -64
WIRE 624 -64 544 -64
WIRE 416 -48 416 -64
WIRE 448 -48 416 -48
WIRE 416 -32 416 -48
WIRE 368 -16 288 -16
WIRE 448 16 448 -48
WIRE 448 16 416 16
WIRE 416 80 416 64
WIRE 512 80 416 80
WIRE 416 96 416 80
WIRE 464 144 416 144
WIRE 288 176 288 -16
WIRE 368 176 288 176
WIRE 512 176 512 80
WIRE 576 176 512 176
WIRE 464 192 464 144
WIRE 464 192 416 192
WIRE 416 208 416 192
WIRE 288 256 288 176
WIRE 336 256 288 256
WIRE 384 256 336 256
WIRE 400 256 384 256
WIRE 512 256 512 176
WIRE 512 256 480 256
WIRE 288 304 288 256
WIRE 512 304 512 256
WIRE 384 400 384 256
WIRE 416 400 384 400
WIRE 512 400 512 384
WIRE 512 400 480 400
WIRE 640 400 512 400
WIRE 672 400 640 400
FLAG 672 464 0
FLAG 288 368 0
FLAG 336 256 in
FLAG 640 400 out
FLAG 576 176 D
FLAG 416 208 0
FLAG 624 16 0
FLAG 544 -64 VDD
SYMBOL res 496 240 R90
WINDOW 0 0 56 VBottom 2
WINDOW 3 32 56 VTop 2
SYMATTR InstName R1
SYMATTR Value 10Meg
SYMBOL Misc\\xtal 480 384 R90
WINDOW 0 0 32 VBottom 2
WINDOW 3 32 32 VTop 2
WINDOW 39 60 32 VTop 2
SYMATTR InstName C1
SYMATTR Value 0.003p
SYMATTR SpiceLine Rser=50k Lser=7863 Cpar=1.35p
SYMBOL cap 656 400 R0
SYMATTR InstName C2
SYMATTR Value 25p
SYMBOL cap 272 304 R0
SYMATTR InstName C3
SYMATTR Value 25p
SYMBOL pmos4 368 64 M180
WINDOW 3 90 99 Left 2
SYMATTR Value MHCPEN
SYMATTR InstName M1
SYMATTR Value2 W=220U L=2.4U AD=1000P PD=30U
SYMBOL nmos4 368 96 R0
WINDOW 3 61 6 Left 2
SYMATTR Value MHCNEN
SYMATTR InstName M2
SYMATTR Value2 W=100U L=2.4U AD=500P PD=30U
SYMBOL voltage 624 -80 R0
WINDOW 123 0 0 Left 0
WINDOW 39 0 0 Left 0
SYMATTR InstName V1
SYMATTR Value 1.8V
SYMBOL res 496 288 R0
SYMATTR InstName R2
SYMATTR Value 300k
TEXT 264 504 Left 2 !.tran 0 1 0 1u uic
TEXT 520 504 Left 2 !.opt reltol=10u
TEXT 248 616 Left 2 !.Model MHCNEN NMOS (LEVEL=3 RS=40 RD=40\n+KP=45.3E-6 VTO=0.72 TOX=51.5E-9 nfs=1.E+11\n+NSUB=2.8E15 GAMMA=0.94 PHI=0.65 VMAX=150E3 RS=13.3 RD=13.3\n+XJ=0.11E-6 LD=0.52E-6 THETA=0.054 ETA=0.025 KAPPA=0.0)\n.Model MHCPEN PMOS (LEVEL=3 RS=80 RD=80\n+KP=22.1E-6 VTO=-0.71 TOX=51.5E-9 NSUB=3.3E16 nfs=7E+11\n+GAMMA=0.92 PHI=0.65 VMAX=970E3\n+XJ=0.63E-6 LD=0.23E-6 THETA=0.108 ETA=0.322 )
TEXT 256 560 Left 2 ;MP1 out 4 vcc vcc MHCPEN W=220U L=2.4U AD=1000P PD=30U\nMN1 out 4 gnd gnd MHCNEN W=100U L=2.4U AD=500P PD=30U
